[General]
network = rrcellnet.CellularNetwork
sim-time-limit = 4min
cpu-time-limit = 300s
**.nUsersCell = 4  # number of users in the cell
**.webServer[*].lambda = 1
**.**.timeFramePeriod = 3ms
**.**.nFrameSlots = 25