[General]
network = rrcellnet.CellularNetwork
sim-time-limit = 100h
cpu-time-limit = 300s
**.nUsersCell = 4  # number of users in the cell
**.webServer[*].lambda = 1
**.**.timeSlotPeriod = 0.5ms
**.**.timeFramePeriod = 3ms
**.**.nFrameSlots = 25